Version 4
SHEET 1 880 680
WIRE 64 112 -224 112
WIRE 240 112 64 112
WIRE 480 112 240 112
WIRE 640 112 480 112
WIRE 64 160 64 112
WIRE 240 160 240 112
WIRE 640 176 640 112
WIRE 176 208 160 208
WIRE -224 240 -224 112
WIRE 64 272 64 240
WIRE 160 272 160 208
WIRE 160 272 64 272
WIRE 480 272 480 112
WIRE 240 288 240 256
WIRE 288 288 240 288
WIRE 432 288 368 288
WIRE 64 304 64 272
WIRE 240 320 240 288
WIRE -80 352 -112 352
WIRE 160 368 160 272
WIRE 176 368 160 368
WIRE -112 416 -112 352
WIRE 480 432 480 368
WIRE -224 544 -224 320
WIRE -112 544 -112 496
WIRE 64 544 64 400
WIRE 240 544 240 416
WIRE 480 544 480 512
WIRE 640 544 640 240
FLAG 480 544 0
FLAG 240 544 0
FLAG 640 544 0
FLAG -224 544 0
FLAG 64 544 0
FLAG -112 544 0
SYMBOL npn 176 160 R0
SYMATTR InstName Q1
SYMATTR Value BC817-40
SYMBOL pnp 176 416 M180
SYMATTR InstName Q2
SYMATTR Value BC807-40
SYMBOL res 384 272 R90
WINDOW 0 0 56 VBottom 2
WINDOW 3 32 56 VTop 2
SYMATTR InstName R1
SYMATTR Value 20
SYMBOL pmos 432 368 M180
SYMATTR InstName M1
SYMATTR Value Si4425DY
SYMBOL res 464 416 R0
SYMATTR InstName R2
SYMATTR Value 3
SYMBOL cap 624 176 R0
SYMATTR InstName C1
SYMATTR Value 470µ
SYMBOL voltage -224 224 R0
WINDOW 123 0 0 Left 0
WINDOW 39 24 124 Left 2
SYMATTR SpiceLine Rser=1
SYMATTR InstName V1
SYMATTR Value 20
SYMBOL voltage -112 400 R0
WINDOW 123 0 0 Left 0
WINDOW 39 0 0 Left 0
SYMATTR InstName V2
SYMATTR Value PULSE(0 3.3 0 0 0 25u 50u)
SYMBOL npn 0 304 R0
SYMATTR InstName Q3
SYMATTR Value BC817-40
SYMBOL res 48 144 R0
SYMATTR InstName R3
SYMATTR Value 1k
SYMBOL res 16 336 R90
WINDOW 0 0 56 VBottom 2
WINDOW 3 32 56 VTop 2
SYMATTR InstName R5
SYMATTR Value 1k
TEXT -256 568 Left 2 !.tran 10m
